saq-moved.pdb
 OpenBabel09122214523D

 45 49  0  0  1  0  0  0  0  0999 V2000
   16.3210   29.3660   -6.2770 N   0  0  0  0  0  0  0  0  0  0  0  0
   16.2990   29.4800   -4.7860 C   0  0  0  0  0  0  0  0  0  0  0  0
   17.5600   30.1940   -4.3320 C   0  0  1  0  0  0  0  0  0  0  0  0
   17.5160   30.4640   -2.8670 C   0  0  0  0  0  0  0  0  0  0  0  0
   18.0080   29.6650   -2.0820 O   0  0  0  0  0  0  0  0  0  0  0  0
   16.9450   31.6200   -2.4280 N   0  0  0  0  0  0  0  0  0  0  0  0
   16.9880   31.9280   -0.9660 C   0  0  0  0  0  0  0  0  0  0  0  0
   18.3410   31.7120   -0.2820 C   0  0  0  0  0  0  0  0  0  0  0  0
   15.9460   30.9910   -0.2570 C   0  0  0  0  0  0  0  0  0  0  0  0
   16.7700   33.4860   -0.7800 C   0  0  0  0  0  0  0  0  0  0  0  0
   18.7210   29.3710   -4.6810 N   0  0  0  0  0  0  0  0  0  0  0  0
   18.7450   29.2110   -6.1640 C   0  0  0  0  0  0  0  0  0  0  0  0
   17.4720   28.6530   -6.7520 C   0  0  0  0  0  0  0  0  0  0  0  0
   19.8770   30.2950   -4.8070 C   0  0  0  0  0  0  0  0  0  0  0  0
   21.2360   29.6830   -4.4900 C   0  0  1  0  0  0  0  0  0  0  0  0
   22.1680   30.4670   -5.0160 O   0  0  0  0  0  0  0  0  0  0  0  0
   21.4220   29.5900   -3.0140 C   0  0  0  0  0  0  0  0  0  0  0  0
   22.6930   28.9030   -2.4860 C   0  0  1  0  0  0  0  0  0  0  0  0
   22.7870   29.1400   -0.9680 C   0  0  0  0  0  0  0  0  0  0  0  0
   23.9220   28.2830   -0.4350 C   0  0  0  0  0  0  0  0  0  0  0  0
   25.2350   28.3510   -0.9830 C   0  0  0  0  0  0  0  0  0  0  0  0
   26.2700   27.6930   -0.3310 C   0  0  0  0  0  0  0  0  0  0  0  0
   25.9860   27.0170    0.8580 C   0  0  0  0  0  0  0  0  0  0  0  0
   24.6620   26.7200    1.2460 C   0  0  0  0  0  0  0  0  0  0  0  0
   23.6100   27.3910    0.6000 C   0  0  0  0  0  0  0  0  0  0  0  0
   22.7050   27.2960   -2.8000 C   0  0  0  0  0  0  0  0  0  0  0  0
   21.8120   26.5360   -2.4140 O   0  0  0  0  0  0  0  0  0  0  0  0
   23.7700   26.8310   -3.3810 N   0  0  0  0  0  0  0  0  0  0  0  0
   24.0680   25.3970   -3.2440 C   0  0  2  0  0  0  0  0  0  0  0  0
   25.5620   25.0890   -2.9690 C   0  0  2  0  0  0  0  0  0  0  0  0
   26.3060   25.8610   -3.8170 O   0  0  0  0  0  0  0  0  0  0  0  0
   25.7950   23.5710   -3.2910 C   0  0  0  0  0  0  0  0  0  0  0  0
   24.8990   23.6730   -4.5690 C   0  0  0  0  0  0  0  0  0  0  0  0
   25.0630   22.9820   -5.7470 C   0  0  0  0  0  0  0  0  0  0  0  0
   24.2480   23.4570   -6.8010 C   0  0  0  0  0  0  0  0  0  0  0  0
   23.3080   24.5220   -6.7240 C   0  0  0  0  0  0  0  0  0  0  0  0
   23.1180   25.1600   -5.5350 C   0  0  0  0  0  0  0  0  0  0  0  0
   23.9540   24.7280   -4.5130 C   0  0  0  0  0  0  0  0  0  0  0  0
   15.1280   28.7150   -6.9010 C   0  0  0  0  0  0  0  0  0  0  0  0
   14.5480   27.5340   -6.0780 C   0  0  0  0  0  0  0  0  0  0  0  0
   13.5450   27.7340   -5.0910 C   0  0  0  0  0  0  0  0  0  0  0  0
   13.0110   26.6830   -4.4250 N   0  0  0  0  0  0  0  0  0  0  0  0
   13.3750   25.4020   -4.6770 C   0  0  0  0  0  0  0  0  0  0  0  0
   14.3860   25.0820   -5.6220 C   0  0  0  0  0  0  0  0  0  0  0  0
   14.9760   26.1880   -6.3140 C   0  0  0  0  0  0  0  0  0  0  0  0
  1  2  1  0  0  0  0
  2  3  1  0  0  0  0
  3  4  1  1  0  0  0
  4  6  1  0  0  0  0
  4  5  2  0  0  0  0
  6  7  1  0  0  0  0
  7 10  1  0  0  0  0
  7  8  1  0  0  0  0
  7  9  1  0  0  0  0
 11  3  1  0  0  0  0
 12 11  1  0  0  0  0
 13  1  1  0  0  0  0
 13 12  1  0  0  0  0
 14 11  1  0  0  0  0
 14 15  1  0  0  0  0
 15 16  1  1  0  0  0
 15 17  1  0  0  0  0
 18 17  1  1  0  0  0
 18 19  1  0  0  0  0
 19 20  1  0  0  0  0
 20 25  1  0  0  0  0
 21 20  2  0  0  0  0
 21 22  1  0  0  0  0
 22 23  2  0  0  0  0
 23 24  1  0  0  0  0
 25 24  2  0  0  0  0
 26 18  1  0  0  0  0
 26 27  2  0  0  0  0
 28 26  1  0  0  0  0
 29 28  1  6  0  0  0
 29 30  1  0  0  0  0
 30 31  1  6  0  0  0
 32 30  1  0  0  0  0
 33 38  1  0  0  0  0
 33 32  1  0  0  0  0
 34 33  2  0  0  0  0
 35 36  2  0  0  0  0
 35 34  1  0  0  0  0
 36 37  1  0  0  0  0
 37 38  2  0  0  0  0
 38 29  1  0  0  0  0
 39  1  1  0  0  0  0
 39 40  1  0  0  0  0
 40 41  1  0  0  0  0
 41 42  2  0  0  0  0
 43 42  1  0  0  0  0
 44 43  2  0  0  0  0
 45 40  2  0  0  0  0
 45 44  1  0  0  0  0
M  END
$$$$
compound_8kqry_x2_0
     RDKit          3D

 40 42  0  0  0  0  0  0  0  0999 V2000
   -2.5794    0.8992    1.7702 C   0  0  0  0  0  0  0  0  0  0  0  0
   -3.4724   -0.0478    1.0172 C   0  0  0  0  0  0  0  0  0  0  0  0
   -4.7766   -0.2820    1.4789 C   0  0  0  0  0  0  0  0  0  0  0  0
   -5.6169   -1.1662    0.8049 C   0  0  0  0  0  0  0  0  0  0  0  0
   -5.1582   -1.8267   -0.3303 C   0  0  0  0  0  0  0  0  0  0  0  0
   -3.8602   -1.6063   -0.7975 C   0  0  0  0  0  0  0  0  0  0  0  0
   -3.0100   -0.7201   -0.1308 C   0  0  0  0  0  0  0  0  0  0  0  0
   -1.7229   -0.4356   -0.5057 O   0  0  0  0  0  0  0  0  0  0  0  0
   -1.2121   -1.0605   -1.6646 C   0  0  0  0  0  0  0  0  0  0  0  0
    0.2189   -0.7315   -2.1496 C   0  0  0  0  0  0  0  0  0  0  0  0
    0.5895   -1.2288   -3.2232 O   0  0  0  0  0  0  0  0  0  0  0  0
    1.0699    0.0730   -1.4061 N   0  0  0  0  0  0  0  0  0  0  0  0
    0.6754    0.7871   -0.1859 C   0  0  0  0  0  0  0  0  0  0  0  0
    1.7349    1.7209    0.4074 C   0  0  0  0  0  0  0  0  0  0  0  0
    3.0874    1.0689    0.3857 C   0  0  0  0  0  0  0  0  0  0  0  0
    3.9941    1.1904    1.4413 C   0  0  0  0  0  0  0  0  0  0  0  0
    5.2484    0.5891    1.3467 C   0  0  0  0  0  0  0  0  0  0  0  0
    5.6040   -0.1180    0.1968 C   0  0  0  0  0  0  0  0  0  0  0  0
    4.7043   -0.2332   -0.8641 C   0  0  0  0  0  0  0  0  0  0  0  0
    3.4370    0.3514   -0.7702 C   0  0  0  0  0  0  0  0  0  0  0  0
    2.4359    0.2727   -1.8975 C   0  0  0  0  0  0  0  0  0  0  0  0
   -2.1557    1.6489    1.0931 H   0  0  0  0  0  0  0  0  0  0  0  0
   -1.7662    0.3488    2.2560 H   0  0  0  0  0  0  0  0  0  0  0  0
   -3.1326    1.4415    2.5447 H   0  0  0  0  0  0  0  0  0  0  0  0
   -5.1447    0.2255    2.3671 H   0  0  0  0  0  0  0  0  0  0  0  0
   -6.6272   -1.3393    1.1674 H   0  0  0  0  0  0  0  0  0  0  0  0
   -5.8118   -2.5182   -0.8557 H   0  0  0  0  0  0  0  0  0  0  0  0
   -3.5486   -2.1465   -1.6854 H   0  0  0  0  0  0  0  0  0  0  0  0
   -1.2176   -2.1472   -1.5114 H   0  0  0  0  0  0  0  0  0  0  0  0
   -1.8585   -0.8078   -2.5151 H   0  0  0  0  0  0  0  0  0  0  0  0
   -0.2175    1.3786   -0.4083 H   0  0  0  0  0  0  0  0  0  0  0  0
    0.4202    0.0225    0.5569 H   0  0  0  0  0  0  0  0  0  0  0  0
    1.7927    2.6451   -0.1811 H   0  0  0  0  0  0  0  0  0  0  0  0
    1.4417    2.0001    1.4255 H   0  0  0  0  0  0  0  0  0  0  0  0
    3.7314    1.7465    2.3363 H   0  0  0  0  0  0  0  0  0  0  0  0
    5.9548    0.6762    2.1679 H   0  0  0  0  0  0  0  0  0  0  0  0
    6.5867   -0.5782    0.1243 H   0  0  0  0  0  0  0  0  0  0  0  0
    4.9933   -0.7800   -1.7578 H   0  0  0  0  0  0  0  0  0  0  0  0
    2.4508    1.2156   -2.4578 H   0  0  0  0  0  0  0  0  0  0  0  0
    2.7177   -0.5280   -2.5892 H   0  0  0  0  0  0  0  0  0  0  0  0
  1  2  1  0
  2  3  2  0
  3  4  1  0
  4  5  2  0
  5  6  1  0
  6  7  2  0
  7  8  1  0
  8  9  1  0
  9 10  1  0
 10 11  2  0
 10 12  1  0
 12 13  1  0
 13 14  1  0
 14 15  1  0
 15 16  2  0
 16 17  1  0
 17 18  2  0
 18 19  1  0
 19 20  2  0
 20 21  1  0
  7  2  1  0
 21 12  1  0
 20 15  1  0
  1 22  1  0
  1 23  1  0
  1 24  1  0
  3 25  1  0
  4 26  1  0
  5 27  1  0
  6 28  1  0
  9 29  1  0
  9 30  1  0
 13 31  1  0
 13 32  1  0
 14 33  1  0
 14 34  1  0
 16 35  1  0
 17 36  1  0
 18 37  1  0
 19 38  1  0
 21 39  1  0
 21 40  1  0
M  END
>  <state_idx>  (1) 
0

>  <score>  (1) 
-1

>  <tanimoto_score>  (1) 
-1

>  <tversky_db_score>  (1) 
-1

>  <tversky_ref_score>  (1) 
-1

$$$$
deepfmpo_001_1
     RDKit          3D

 22 22  0  0  0  0  0  0  0  0999 V2000
   42.5666   42.1093   39.9708 C   0  0  0  0  0  0  0  0  0  0  0  0
   42.3894   40.8614   39.1477 C   0  0  0  0  0  0  0  0  0  0  0  0
   42.5055   40.8981   37.9230 O   0  0  0  0  0  0  0  0  0  0  0  0
   42.1058   39.5763   39.9089 C   0  0  2  0  0  0  0  0  0  0  0  0
   41.9896   38.3263   39.0372 C   0  0  0  0  0  0  0  0  0  0  0  0
   40.6642   37.6837   39.4127 C   0  0  0  0  0  0  0  0  0  0  0  0
   40.2485   38.2838   40.6857 N   0  0  0  0  0  0  0  0  0  0  0  0
   40.7632   37.5382   41.8350 C   0  0  0  0  0  0  0  0  0  0  0  0
   40.7679   39.6558   40.6333 C   0  0  0  0  0  0  0  0  0  0  0  0
   43.3738   41.9634   40.6955 H   0  0  0  0  0  0  0  0  0  0  0  0
   41.6356   42.3541   40.4875 H   0  0  0  0  0  0  0  0  0  0  0  0
   42.8294   42.9429   39.3159 H   0  0  0  0  0  0  0  0  0  0  0  0
   42.9270   39.4284   40.6219 H   0  0  0  0  0  0  0  0  0  0  0  0
   42.0264   38.5214   37.9616 H   0  0  0  0  0  0  0  0  0  0  0  0
   42.8212   37.6434   39.2700 H   0  0  0  0  0  0  0  0  0  0  0  0
   39.9126   37.9218   38.6505 H   0  0  0  0  0  0  0  0  0  0  0  0
   40.7329   36.5862   39.4460 H   0  0  0  0  0  0  0  0  0  0  0  0
   41.8559   37.4613   41.8482 H   0  0  0  0  0  0  0  0  0  0  0  0
   40.4449   38.0104   42.7724 H   0  0  0  0  0  0  0  0  0  0  0  0
   40.3515   36.5249   41.8474 H   0  0  0  0  0  0  0  0  0  0  0  0
   40.8633   40.1099   41.6243 H   0  0  0  0  0  0  0  0  0  0  0  0
   40.0571   40.2765   40.0720 H   0  0  0  0  0  0  0  0  0  0  0  0
  1  2  1  0
  2  3  2  0
  2  4  1  0
  4  5  1  0
  5  6  1  0
  6  7  1  0
  7  8  1  0
  7  9  1  0
  9  4  1  0
  1 10  1  0
  1 11  1  0
  1 12  1  0
  4 13  1  1
  5 14  1  0
  5 15  1  0
  6 16  1  0
  6 17  1  0
  8 18  1  0
  8 19  1  0
  8 20  1  0
  9 21  1  0
  9 22  1  0
M  END
>  <state_idx>  (1) 
0

>  <score>  (1) 
-1

>  <tanimoto_score>  (1) 
0.137793

>  <tversky_db_score>  (1) 
0.76169500000000001

>  <tversky_ref_score>  (1) 
0.14400099999999999

$$$$