understanding
understanding_010_0_2
     RDKit          3D
 31 32  0  0  0  0  0  0  0  0999 V2000
   39.1409   42.2847   35.6117 O   0  0  0  0  0  0  0  0  0  0  0  0
   39.5445   43.4109   36.0189 C   0  0  0  0  0  0  0  0  0  0  0  0
   40.2113   44.2728   35.3575 O   0  0  0  0  0  1  0  0  0  0  0  0
   39.1746   43.7924   37.5083 C   0  0  0  0  0  0  0  0  0  0  0  0
   38.4396   42.9813   38.4026 C   0  0  0  0  0  0  0  0  0  0  0  0S
   38.3397   43.6885   39.5832 C   0  0  0  0  0  0  0  0  0  0  0  0
   38.9556   44.9058   39.4141 N   0  0  0  0  0  0  0  0  0  0  0  0
   39.0975   45.9921   40.4105 C   0  0  0  0  0  0  0  0  0  0  0  0
   38.7694   47.4347   39.7656 C   0  0  0  0  0  0  0  0  0  0  0  0
   37.4864   47.7440   40.4231 C   0  0  0  0  0  0  0  0  0  0  0  0
   36.1993   48.1903   40.9966 C   0  0  0  0  0  0  0  0  0  0  0  0
   35.9991   47.0864   42.1160 C   0  0  0  0  0  0  0  0  0  0  0  0
   36.7579   45.6976   41.9229 C   0  0  0  0  0  0  0  0  0  0  0  0
   38.3547   45.6815   41.8122 C   0  0  0  0  0  0  0  0  0  0  0  0
   39.5234   44.9447   38.1698 C   0  0  0  0  0  0  0  0  0  0  0  0
   38.0516   42.0008   38.1925 H   0  0  0  0  0  0  0  0  0  0  0  0
   37.8700   43.4017   40.5007 H   0  0  0  0  0  0  0  0  0  0  0  0
   40.1681   45.9864   40.6287 H   0  0  0  0  0  0  0  0  0  0  0  0
   39.5542   48.1345   40.0526 H   0  0  0  0  0  0  0  0  0  0  0  0
   38.7008   47.4262   38.6776 H   0  0  0  0  0  0  0  0  0  0  0  0
   37.9868   47.8798   41.3875 H   0  0  0  0  0  0  0  0  0  0  0  0
   37.0228   46.8601   39.9846 H   0  0  0  0  0  0  0  0  0  0  0  0
   36.2307   49.1819   41.4340 H   0  0  0  0  0  0  0  0  0  0  0  0
   35.3804   48.1547   40.2785 H   0  0  0  0  0  0  0  0  0  0  0  0
   36.3346   47.5060   43.0753 H   0  0  0  0  0  0  0  0  0  0  0  0
   34.9304   46.8848   42.2144 H   0  0  0  0  0  0  0  0  0  0  0  0
   36.5060   45.0991   42.7739 H   0  0  0  0  0  0  0  0  0  0  0  0
   36.3288   45.1835   41.0532 H   0  0  0  0  0  0  0  0  0  0  0  0
   38.7418   46.3753   42.5581 H   0  0  0  0  0  0  0  0  0  0  0  0
   38.6858   44.7092   42.1484 H   0  0  0  0  0  0  0  0  0  0  0  0
   40.1130   45.7763   37.8157 H   0  0  0  0  0  0  0  0  0  0  0  0
  1  2  2  0
  2  3  1  0
  2  4  1  0
  4  5  1  0
  5  6  2  0
  6  7  1  0
  7  8  1  0
  8  9  1  0
  9 10  1  0
 10 11  1  0
 11 12  1  0
 12 13  1  0
 13 14  1  0
  7 15  1  0
 15  4  2  0
 14  8  1  0
  5 16  1  0
  6 17  1  0
  8 18  1  0
  9 19  1  0
  9 20  1  0
 10 21  1  0
 10 22  1  0
 11 23  1  0
 11 24  1  0
 12 25  1  0
 12 26  1  0
 13 27  1  0
 13 28  1  0
 14 29  1  0
 14 30  1  0
 15 31  1  0
M  CHG  1   3  -1
M  END
>  <state_idx>  (7) 
0
>  <score>  (7) 
0.93973099999999998
>  <score_tanimoto>  (7) 
0.438081
>  <score_tversky_ref>  (7) 
0.45074500000000001
>  <score_tversky_db>  (7) 
0.93973099999999998
>  <score_overlap>  (7) 
0.33915800000000002
>  <score_refVolume>  (7) 
0.77419000000000004
>  <score_dbVolume>  (7) 
0.33915800000000002
$$$$